tests/data/power_flow/pandapower/components/symmetric/pandapower-symmetric-node/pgm_sym_output.json
{
  "line": [
    {
      "id": 3,
      "energized": 1,
      "loading": 0.0019045258118127618,
      "p_from": 0.6801249422402625,
      "q_from": -34636.84180700436,
      "i_from": 1.9045258118127617,
      "s_from": 34636.841813681785,
      "p_to": -1.1369192705518983e-07,
      "q_to": -2.841819630776971e-08,
      "i_to": 6.4435429750498925e-12,
      "s_to": 1.1718979545553246e-07
    }
  ],
  "node": [
    {
      "id": 1,
      "energized": 1,
      "u_pu": 1.00000344647587,
      "u": 10500.036187996635,
      "u_angle": -3.44715944382273e-07
    },
    {
      "id": 2,
      "energized": 1,
      "u_pu": 1.0000348627265365,
      "u": 10500.366058628633,
      "u_angle": -3.961585783354522e-05
    },
    {
      "id": 5,
      "energized": 0,
      "u_pu": 0.0,
      "u": 0.0,
      "u_angle": 0.0
    }
  ],
  "source": [
    {
      "id": 10,
      "energized": 1,
      "p": 0.6801246649243308,
      "q": -34636.8418080091,
      "i": 1.9045258118680075,
      "s": 34636.84181468652,
      "pf": 1.9635874095078383e-05
    }
  ]
}